# DIS package for  MODFLOW-2000, generated by Flopy.
         1        51        51        11         4         1
  0
CONSTANT    1.600000E+02                           #delr                          
CONSTANT    1.600000E+02                           #delc                          
CONSTANT    1.500000E+02                           #model_top                     
CONSTANT    0.000000E+00                           #botm layer 1                  
    365.250000             1  1.000000  SS 
    365.250000             1  1.000000  SS 
    365.250000             1  1.000000  SS 
    365.250000             1  1.000000  SS 
    365.250000             1  1.000000  SS 
    365.250000             1  1.000000  SS 
    365.250000             1  1.000000  SS 
    365.250000             1  1.000000  SS 
    365.250000             1  1.000000  SS 
    365.250000             1  1.000000  SS 
    365.250000             1  1.000000  SS 
