# WEL package for  MODFLOW-2000, generated by Flopy.
         4        53
         4         0 # stress period 1
         1        11        16    -38500
         1        19        41    -77000
         1        30        25    -96250
         1        43        19    -57750
         4         0 # stress period 2
         1        11        16    -38500
         1        19        41    -77000
         1        30        25    -96250
         1        43        19    -57750
         4         0 # stress period 3
         1        11        16    -38500
         1        19        41    -77000
         1        30        25    -96250
         1        43        19    -57750
         4         0 # stress period 4
         1        11        16    -38500
         1        19        41    -77000
         1        30        25    -96250
         1        43        19    -57750
         4         0 # stress period 5
         1        11        16    -38500
         1        19        41    -77000
         1        30        25    -96250
         1        43        19    -57750
         4         0 # stress period 6
         1        11        16    -38500
         1        19        41    -77000
         1        30        25    -96250
         1        43        19    -57750
         4         0 # stress period 7
         1        11        16    -38500
         1        19        41    -77000
         1        30        25    -96250
         1        43        19    -57750
         4         0 # stress period 8
         1        11        16    -38500
         1        19        41    -77000
         1        30        25    -96250
         1        43        19    -57750
         4         0 # stress period 9
         1        11        16    -38500
         1        19        41    -77000
         1        30        25    -96250
         1        43        19    -57750
         4         0 # stress period 10
         1        11        16    -38500
         1        19        41    -77000
         1        30        25    -96250
         1        43        19    -57750
        -1         0 # stress period 11
