# LPF package for  MODFLOW-2000, generated by Flopy.
        53    -1E+30         0  
         0
         0
   1.000000E+00
         0
         0
INTERNAL               1  (51E15.6) -1 #hk layer 1                    
   1.000000E+00   1.000000E+00   1.000000E+00   1.000000E+00   1.000000E+00   1.000000E+00   1.000000E+00   1.000000E+00   1.000000E+00   1.000000E+00   5.000000E+00   5.000000E+00   5.000000E+00   5.000000E+00   5.000000E+00   5.000000E+00   5.000000E+00   5.000000E+00   5.000000E+00   5.000000E+00   5.000000E+00   5.000000E+00   5.000000E+00   5.000000E+00   5.000000E+00   5.000000E+00   5.000000E+00   5.000000E+00   5.000000E+00   5.000000E+00   5.000000E+00   5.000000E+00   2.500000E+01   2.500000E+01   2.500000E+01   2.500000E+01   2.500000E+01   4.000000E+01   4.000000E+01   4.000000E+01   4.000000E+01   4.000000E+01   4.000000E+01   4.000000E+01   4.000000E+01   4.000000E+01   4.000000E+01   4.000000E+01   4.000000E+01   4.000000E+01   4.000000E+01
   1.000000E+00   1.000000E+00   1.000000E+00   1.000000E+00   1.000000E+00   1.000000E+00   1.000000E+00   1.000000E+00   1.000000E+00   1.000000E+00   5.000000E+00   5.000000E+00   5.000000E+00   5.000000E+00   5.000000E+00   5.000000E+00   5.000000E+00   5.000000E+00   5.000000E+00   5.000000E+00   5.000000E+00   5.000000E+00   5.000000E+00   5.000000E+00   5.000000E+00   5.000000E+00   5.000000E+00   5.000000E+00   5.000000E+00   5.000000E+00   5.000000E+00   5.000000E+00   2.500000E+01   2.500000E+01   2.500000E+01   2.500000E+01   2.500000E+01   4.000000E+01   4.000000E+01   4.000000E+01   4.000000E+01   4.000000E+01   4.000000E+01   4.000000E+01   4.000000E+01   4.000000E+01   4.000000E+01   4.000000E+01   4.000000E+01   4.000000E+01   4.000000E+01
   1.000000E+00   1.000000E+00   1.000000E+00   1.000000E+00   1.000000E+00   1.000000E+00   1.000000E+00   1.000000E+00   1.000000E+00   1.000000E+00   5.000000E+00   5.000000E+00   5.000000E+00   5.000000E+00   5.000000E+00   5.000000E+00   5.000000E+00   5.000000E+00   5.000000E+00   5.000000E+00   5.000000E+00   5.000000E+00   5.000000E+00   5.000000E+00   5.000000E+00   5.000000E+00   5.000000E+00   5.000000E+00   5.000000E+00   5.000000E+00   5.000000E+00   5.000000E+00   2.500000E+01   2.500000E+01   2.500000E+01   2.500000E+01   2.500000E+01   4.000000E+01   4.000000E+01   4.000000E+01   4.000000E+01   4.000000E+01   4.000000E+01   4.000000E+01   4.000000E+01   4.000000E+01   4.000000E+01   4.000000E+01   4.000000E+01   4.000000E+01   4.000000E+01
   1.000000E+00   1.000000E+00   1.000000E+00   1.000000E+00   1.000000E+00   1.000000E+00   1.000000E+00   1.000000E+00   1.000000E+00   1.000000E+00   5.000000E+00   5.000000E+00   5.000000E+00   5.000000E+00   5.000000E+00   5.000000E+00   5.000000E+00   5.000000E+00   5.000000E+00   5.000000E+00   5.000000E+00   5.000000E+00   5.000000E+00   5.000000E+00   5.000000E+00   5.000000E+00   5.000000E+00   5.000000E+00   5.000000E+00   5.000000E+00   5.000000E+00   5.000000E+00   2.500000E+01   2.500000E+01   2.500000E+01   2.500000E+01   2.500000E+01   4.000000E+01   4.000000E+01   4.000000E+01   4.000000E+01   4.000000E+01   4.000000E+01   4.000000E+01   4.000000E+01   4.000000E+01   4.000000E+01   4.000000E+01   4.000000E+01   4.000000E+01   4.000000E+01
   1.000000E+00   1.000000E+00   1.000000E+00   1.000000E+00   1.000000E+00   1.000000E+00   1.000000E+00   1.000000E+00   1.000000E+00   1.000000E+00   5.000000E+00   5.000000E+00   5.000000E+00   5.000000E+00   5.000000E+00   5.000000E+00   5.000000E+00   5.000000E+00   5.000000E+00   5.000000E+00   5.000000E+00   5.000000E+00   5.000000E+00   5.000000E+00   5.000000E+00   5.000000E+00   5.000000E+00   5.000000E+00   5.000000E+00   5.000000E+00   5.000000E+00   5.000000E+00   2.500000E+01   2.500000E+01   2.500000E+01   2.500000E+01   2.500000E+01   4.000000E+01   4.000000E+01   4.000000E+01   4.000000E+01   4.000000E+01   4.000000E+01   4.000000E+01   4.000000E+01   4.000000E+01   4.000000E+01   4.000000E+01   4.000000E+01   4.000000E+01   4.000000E+01
   1.000000E+00   1.000000E+00   1.000000E+00   1.000000E+00   1.000000E+00   1.000000E+00   1.000000E+00   1.000000E+00   1.000000E+00   1.000000E+00   5.000000E+00   5.000000E+00   5.000000E+00   5.000000E+00   5.000000E+00   5.000000E+00   5.000000E+00   5.000000E+00   5.000000E+00   5.000000E+00   5.000000E+00   5.000000E+00   5.000000E+00   5.000000E+00   5.000000E+00   5.000000E+00   5.000000E+00   5.000000E+00   5.000000E+00   5.000000E+00   5.000000E+00   5.000000E+00   2.500000E+01   2.500000E+01   2.500000E+01   2.500000E+01   2.500000E+01   4.000000E+01   4.000000E+01   4.000000E+01   4.000000E+01   4.000000E+01   4.000000E+01   4.000000E+01   4.000000E+01   4.000000E+01   4.000000E+01   4.000000E+01   4.000000E+01   4.000000E+01   4.000000E+01
   1.000000E+00   1.000000E+00   1.000000E+00   1.000000E+00   1.000000E+00   1.000000E+00   1.000000E+00   1.000000E+00   1.000000E+00   1.000000E+00   5.000000E+00   5.000000E+00   5.000000E+00   5.000000E+00   5.000000E+00   5.000000E+00   5.000000E+00   5.000000E+00   5.000000E+00   5.000000E+00   5.000000E+00   5.000000E+00   5.000000E+00   5.000000E+00   5.000000E+00   5.000000E+00   5.000000E+00   5.000000E+00   5.000000E+00   5.000000E+00   5.000000E+00   5.000000E+00   2.500000E+01   2.500000E+01   2.500000E+01   2.500000E+01   2.500000E+01   4.000000E+01   4.000000E+01   4.000000E+01   4.000000E+01   4.000000E+01   4.000000E+01   4.000000E+01   4.000000E+01   4.000000E+01   4.000000E+01   4.000000E+01   4.000000E+01   4.000000E+01   4.000000E+01
   1.000000E+00   1.000000E+00   1.000000E+00   1.000000E+00   1.000000E+00   1.000000E+00   1.000000E+00   1.000000E+00   1.000000E+00   1.000000E+00   5.000000E+00   5.000000E+00   5.000000E+00   5.000000E+00   5.000000E+00   5.000000E+00   5.000000E+00   5.000000E+00   5.000000E+00   5.000000E+00   5.000000E+00   5.000000E+00   5.000000E+00   5.000000E+00   5.000000E+00   5.000000E+00   5.000000E+00   5.000000E+00   5.000000E+00   5.000000E+00   5.000000E+00   5.000000E+00   2.500000E+01   2.500000E+01   2.500000E+01   2.500000E+01   2.500000E+01   4.000000E+01   4.000000E+01   4.000000E+01   4.000000E+01   4.000000E+01   4.000000E+01   4.000000E+01   4.000000E+01   4.000000E+01   4.000000E+01   4.000000E+01   4.000000E+01   4.000000E+01   4.000000E+01
   1.000000E+00   1.000000E+00   1.000000E+00   1.000000E+00   1.000000E+00   1.000000E+00   1.000000E+00   1.000000E+00   1.000000E+00   1.000000E+00   5.000000E+00   5.000000E+00   5.000000E+00   5.000000E+00   5.000000E+00   5.000000E+00   5.000000E+00   5.000000E+00   5.000000E+00   5.000000E+00   5.000000E+00   5.000000E+00   5.000000E+00   5.000000E+00   5.000000E+00   5.000000E+00   5.000000E+00   5.000000E+00   5.000000E+00   5.000000E+00   5.000000E+00   5.000000E+00   2.500000E+01   2.500000E+01   2.500000E+01   2.500000E+01   2.500000E+01   4.000000E+01   4.000000E+01   4.000000E+01   4.000000E+01   4.000000E+01   4.000000E+01   4.000000E+01   4.000000E+01   4.000000E+01   4.000000E+01   4.000000E+01   4.000000E+01   4.000000E+01   4.000000E+01
   1.000000E+00   1.000000E+00   1.000000E+00   1.000000E+00   1.000000E+00   1.000000E+00   1.000000E+00   1.000000E+00   1.000000E+00   1.000000E+00   5.000000E+00   5.000000E+00   5.000000E+00   5.000000E+00   5.000000E+00   5.000000E+00   5.000000E+00   5.000000E+00   5.000000E+00   5.000000E+00   5.000000E+00   5.000000E+00   5.000000E+00   5.000000E+00   5.000000E+00   5.000000E+00   5.000000E+00   5.000000E+00   5.000000E+00   5.000000E+00   5.000000E+00   5.000000E+00   2.500000E+01   2.500000E+01   2.500000E+01   2.500000E+01   2.500000E+01   4.000000E+01   4.000000E+01   4.000000E+01   4.000000E+01   4.000000E+01   4.000000E+01   4.000000E+01   4.000000E+01   4.000000E+01   4.000000E+01   4.000000E+01   4.000000E+01   4.000000E+01   4.000000E+01
   1.000000E+00   1.000000E+00   1.000000E+00   1.000000E+00   1.000000E+00   1.000000E+00   1.000000E+00   1.000000E+00   1.000000E+00   1.000000E+00   5.000000E+00   5.000000E+00   5.000000E+00   5.000000E+00   5.000000E+00   5.000000E+00   5.000000E+00   5.000000E+00   5.000000E+00   5.000000E+00   5.000000E+00   5.000000E+00   5.000000E+00   5.000000E+00   5.000000E+00   5.000000E+00   5.000000E+00   5.000000E+00   5.000000E+00   5.000000E+00   5.000000E+00   5.000000E+00   2.500000E+01   2.500000E+01   2.500000E+01   2.500000E+01   2.500000E+01   4.000000E+01   4.000000E+01   4.000000E+01   4.000000E+01   4.000000E+01   4.000000E+01   4.000000E+01   4.000000E+01   4.000000E+01   4.000000E+01   4.000000E+01   4.000000E+01   4.000000E+01   4.000000E+01
   1.000000E+00   1.000000E+00   1.000000E+00   1.000000E+00   1.000000E+00   1.000000E+00   1.000000E+00   1.000000E+00   1.000000E+00   1.000000E+00   5.000000E+00   5.000000E+00   5.000000E+00   5.000000E+00   5.000000E+00   5.000000E+00   5.000000E+00   5.000000E+00   5.000000E+00   5.000000E+00   5.000000E+00   5.000000E+00   5.000000E+00   5.000000E+00   5.000000E+00   5.000000E+00   5.000000E+00   5.000000E+00   5.000000E+00   5.000000E+00   5.000000E+00   5.000000E+00   2.500000E+01   2.500000E+01   2.500000E+01   2.500000E+01   2.500000E+01   4.000000E+01   4.000000E+01   4.000000E+01   4.000000E+01   4.000000E+01   4.000000E+01   4.000000E+01   4.000000E+01   4.000000E+01   4.000000E+01   4.000000E+01   4.000000E+01   4.000000E+01   4.000000E+01
   1.000000E+00   1.000000E+00   1.000000E+00   1.000000E+00   1.000000E+00   1.000000E+00   1.000000E+00   1.000000E+00   1.000000E+00   1.000000E+00   5.000000E+00   5.000000E+00   5.000000E+00   5.000000E+00   5.000000E+00   5.000000E+00   5.000000E+00   5.000000E+00   5.000000E+00   5.000000E+00   5.000000E+00   5.000000E+00   5.000000E+00   5.000000E+00   5.000000E+00   5.000000E+00   5.000000E+00   5.000000E+00   5.000000E+00   5.000000E+00   5.000000E+00   5.000000E+00   2.500000E+01   2.500000E+01   2.500000E+01   2.500000E+01   2.500000E+01   4.000000E+01   4.000000E+01   4.000000E+01   4.000000E+01   4.000000E+01   4.000000E+01   4.000000E+01   4.000000E+01   4.000000E+01   4.000000E+01   4.000000E+01   4.000000E+01   4.000000E+01   4.000000E+01
   1.000000E+00   1.000000E+00   1.000000E+00   1.000000E+00   1.000000E+00   1.000000E+00   1.000000E+00   1.000000E+00   1.000000E+00   1.000000E+00   5.000000E+00   5.000000E+00   5.000000E+00   5.000000E+00   5.000000E+00   5.000000E+00   5.000000E+00   5.000000E+00   5.000000E+00   5.000000E+00   5.000000E+00   5.000000E+00   5.000000E+00   5.000000E+00   5.000000E+00   5.000000E+00   5.000000E+00   5.000000E+00   5.000000E+00   5.000000E+00   5.000000E+00   5.000000E+00   2.500000E+01   2.500000E+01   2.500000E+01   2.500000E+01   2.500000E+01   4.000000E+01   4.000000E+01   4.000000E+01   4.000000E+01   4.000000E+01   4.000000E+01   4.000000E+01   4.000000E+01   4.000000E+01   4.000000E+01   4.000000E+01   4.000000E+01   4.000000E+01   4.000000E+01
   1.000000E+00   1.000000E+00   1.000000E+00   1.000000E+00   1.000000E+00   1.000000E+00   1.000000E+00   1.000000E+00   1.000000E+00   1.000000E+00   2.500000E+01   2.500000E+01   2.500000E+01   2.500000E+01   2.500000E+01   2.500000E+01   2.500000E+01   2.500000E+01   2.500000E+01   2.500000E+01   2.500000E+01   2.500000E+01   2.500000E+01   2.500000E+01   2.500000E+01   2.500000E+01   2.500000E+01   2.500000E+01   2.500000E+01   2.500000E+01   2.500000E+01   2.500000E+01   2.500000E+01   2.500000E+01   2.500000E+01   2.500000E+01   2.500000E+01   4.000000E+01   4.000000E+01   4.000000E+01   4.000000E+01   4.000000E+01   4.000000E+01   4.000000E+01   4.000000E+01   4.000000E+01   4.000000E+01   4.000000E+01   4.000000E+01   4.000000E+01   4.000000E+01
   1.000000E+00   1.000000E+00   1.000000E+00   1.000000E+00   1.000000E+00   1.000000E+00   1.000000E+00   1.000000E+00   1.000000E+00   1.000000E+00   2.500000E+01   2.500000E+01   2.500000E+01   2.500000E+01   2.500000E+01   2.500000E+01   2.500000E+01   2.500000E+01   2.500000E+01   2.500000E+01   2.500000E+01   2.500000E+01   2.500000E+01   2.500000E+01   2.500000E+01   2.500000E+01   2.500000E+01   2.500000E+01   2.500000E+01   2.500000E+01   2.500000E+01   2.500000E+01   2.500000E+01   2.500000E+01   2.500000E+01   2.500000E+01   2.500000E+01   4.000000E+01   4.000000E+01   4.000000E+01   4.000000E+01   4.000000E+01   4.000000E+01   4.000000E+01   4.000000E+01   4.000000E+01   4.000000E+01   4.000000E+01   4.000000E+01   4.000000E+01   4.000000E+01
   1.000000E+00   1.000000E+00   1.000000E+00   1.000000E+00   1.000000E+00   1.000000E+00   1.000000E+00   1.000000E+00   1.000000E+00   1.000000E+00   2.500000E+01   2.500000E+01   2.500000E+01   2.500000E+01   2.500000E+01   2.500000E+01   2.500000E+01   2.500000E+01   2.500000E+01   2.500000E+01   2.500000E+01   2.500000E+01   2.500000E+01   2.500000E+01   2.500000E+01   2.500000E+01   2.500000E+01   2.500000E+01   2.500000E+01   2.500000E+01   2.500000E+01   2.500000E+01   2.500000E+01   2.500000E+01   2.500000E+01   2.500000E+01   2.500000E+01   4.000000E+01   4.000000E+01   4.000000E+01   4.000000E+01   4.000000E+01   4.000000E+01   4.000000E+01   4.000000E+01   4.000000E+01   4.000000E+01   4.000000E+01   4.000000E+01   4.000000E+01   4.000000E+01
   1.000000E+00   1.000000E+00   1.000000E+00   1.000000E+00   1.000000E+00   1.000000E+00   1.000000E+00   1.000000E+00   1.000000E+00   1.000000E+00   2.500000E+01   2.500000E+01   2.500000E+01   2.500000E+01   2.500000E+01   2.500000E+01   2.500000E+01   2.500000E+01   2.500000E+01   2.500000E+01   2.500000E+01   2.500000E+01   2.500000E+01   2.500000E+01   2.500000E+01   2.500000E+01   2.500000E+01   2.500000E+01   2.500000E+01   2.500000E+01   2.500000E+01   2.500000E+01   2.500000E+01   2.500000E+01   2.500000E+01   2.500000E+01   2.500000E+01   4.000000E+01   4.000000E+01   4.000000E+01   4.000000E+01   4.000000E+01   4.000000E+01   4.000000E+01   4.000000E+01   4.000000E+01   4.000000E+01   4.000000E+01   4.000000E+01   4.000000E+01   4.000000E+01
   1.000000E+00   1.000000E+00   1.000000E+00   1.000000E+00   1.000000E+00   1.000000E+00   1.000000E+00   1.000000E+00   1.000000E+00   1.000000E+00   2.500000E+01   2.500000E+01   2.500000E+01   2.500000E+01   2.500000E+01   2.500000E+01   2.500000E+01   2.500000E+01   2.500000E+01   2.500000E+01   2.500000E+01   2.500000E+01   2.500000E+01   2.500000E+01   2.500000E+01   2.500000E+01   2.500000E+01   2.500000E+01   2.500000E+01   2.500000E+01   2.500000E+01   2.500000E+01   2.500000E+01   2.500000E+01   2.500000E+01   2.500000E+01   2.500000E+01   4.000000E+01   4.000000E+01   4.000000E+01   4.000000E+01   4.000000E+01   4.000000E+01   4.000000E+01   4.000000E+01   4.000000E+01   4.000000E+01   4.000000E+01   4.000000E+01   4.000000E+01   4.000000E+01
   1.000000E+00   1.000000E+00   1.000000E+00   1.000000E+00   1.000000E+00   1.000000E+00   1.000000E+00   1.000000E+00   1.000000E+00   1.000000E+00   2.500000E+01   2.500000E+01   2.500000E+01   2.500000E+01   2.500000E+01   2.500000E+01   2.500000E+01   2.500000E+01   2.500000E+01   2.500000E+01   2.500000E+01   2.500000E+01   2.500000E+01   2.500000E+01   2.500000E+01   2.500000E+01   2.500000E+01   2.500000E+01   2.500000E+01   2.500000E+01   2.500000E+01   2.500000E+01   2.500000E+01   2.500000E+01   2.500000E+01   2.500000E+01   2.500000E+01   4.000000E+01   4.000000E+01   4.000000E+01   4.000000E+01   4.000000E+01   4.000000E+01   4.000000E+01   4.000000E+01   4.000000E+01   4.000000E+01   4.000000E+01   4.000000E+01   4.000000E+01   4.000000E+01
   1.000000E+00   1.000000E+00   1.000000E+00   1.000000E+00   1.000000E+00   1.000000E+00   1.000000E+00   1.000000E+00   1.000000E+00   1.000000E+00   2.500000E+01   2.500000E+01   2.500000E+01   2.500000E+01   2.500000E+01   2.500000E+01   2.500000E+01   2.500000E+01   2.500000E+01   2.500000E+01   2.500000E+01   2.500000E+01   2.500000E+01   2.500000E+01   2.500000E+01   2.500000E+01   2.500000E+01   2.500000E+01   2.500000E+01   2.500000E+01   2.500000E+01   2.500000E+01   2.500000E+01   2.500000E+01   2.500000E+01   2.500000E+01   2.500000E+01   2.500000E+01   2.500000E+01   2.500000E+01   2.500000E+01   2.500000E+01   2.500000E+01   2.500000E+01   2.500000E+01   2.500000E+01   2.500000E+01   2.500000E+01   2.500000E+01   2.500000E+01   2.500000E+01
   1.000000E+00   1.000000E+00   1.000000E+00   1.000000E+00   1.000000E+00   1.000000E+00   1.000000E+00   1.000000E+00   1.000000E+00   1.000000E+00   2.500000E+01   2.500000E+01   2.500000E+01   2.500000E+01   2.500000E+01   2.500000E+01   2.500000E+01   2.500000E+01   2.500000E+01   2.500000E+01   2.500000E+01   2.500000E+01   2.500000E+01   2.500000E+01   2.500000E+01   2.500000E+01   2.500000E+01   2.500000E+01   2.500000E+01   2.500000E+01   2.500000E+01   2.500000E+01   2.500000E+01   2.500000E+01   2.500000E+01   2.500000E+01   2.500000E+01   2.500000E+01   2.500000E+01   2.500000E+01   2.500000E+01   2.500000E+01   2.500000E+01   2.500000E+01   2.500000E+01   2.500000E+01   2.500000E+01   2.500000E+01   2.500000E+01   2.500000E+01   2.500000E+01
   1.000000E+00   1.000000E+00   1.000000E+00   1.000000E+00   1.000000E+00   1.000000E+00   1.000000E+00   1.000000E+00   1.000000E+00   1.000000E+00   2.500000E+01   2.500000E+01   2.500000E+01   2.500000E+01   2.500000E+01   2.500000E+01   2.500000E+01   2.500000E+01   2.500000E+01   2.500000E+01   2.500000E+01   2.500000E+01   2.500000E+01   2.500000E+01   2.500000E+01   2.500000E+01   2.500000E+01   2.500000E+01   2.500000E+01   2.500000E+01   2.500000E+01   2.500000E+01   2.500000E+01   2.500000E+01   2.500000E+01   2.500000E+01   2.500000E+01   2.500000E+01   2.500000E+01   2.500000E+01   2.500000E+01   2.500000E+01   2.500000E+01   2.500000E+01   2.500000E+01   2.500000E+01   2.500000E+01   2.500000E+01   2.500000E+01   2.500000E+01   2.500000E+01
   1.000000E+00   1.000000E+00   1.000000E+00   1.000000E+00   1.000000E+00   1.000000E+00   1.000000E+00   1.000000E+00   1.000000E+00   1.000000E+00   2.500000E+01   2.500000E+01   2.500000E+01   2.500000E+01   2.500000E+01   2.500000E+01   2.500000E+01   2.500000E+01   2.500000E+01   2.500000E+01   2.500000E+01   2.500000E+01   2.500000E+01   2.500000E+01   2.500000E+01   2.500000E+01   2.500000E+01   2.500000E+01   2.500000E+01   2.500000E+01   2.500000E+01   2.500000E+01   2.500000E+01   2.500000E+01   2.500000E+01   2.500000E+01   2.500000E+01   2.500000E+01   2.500000E+01   2.500000E+01   2.500000E+01   2.500000E+01   2.500000E+01   2.500000E+01   2.500000E+01   2.500000E+01   2.500000E+01   2.500000E+01   2.500000E+01   2.500000E+01   2.500000E+01
   2.000000E+01   2.000000E+01   2.000000E+01   2.000000E+01   2.000000E+01   2.000000E+01   2.000000E+01   2.000000E+01   2.000000E+01   2.000000E+01   2.500000E+01   2.500000E+01   2.500000E+01   2.500000E+01   2.500000E+01   2.500000E+01   2.500000E+01   2.500000E+01   2.500000E+01   2.500000E+01   2.500000E+01   2.500000E+01   2.500000E+01   2.500000E+01   2.500000E+01   2.500000E+01   2.500000E+01   2.500000E+01   2.500000E+01   2.500000E+01   2.500000E+01   2.500000E+01   2.500000E+01   2.500000E+01   2.500000E+01   2.500000E+01   2.500000E+01   2.500000E+01   2.500000E+01   2.500000E+01   2.500000E+01   2.500000E+01   2.500000E+01   2.500000E+01   2.500000E+01   2.500000E+01   2.500000E+01   2.500000E+01   2.500000E+01   2.500000E+01   2.500000E+01
   2.000000E+01   2.000000E+01   2.000000E+01   2.000000E+01   2.000000E+01   2.000000E+01   2.000000E+01   2.000000E+01   2.000000E+01   2.000000E+01   2.000000E+01   2.000000E+01   2.000000E+01   2.000000E+01   2.000000E+01   2.000000E+01   2.000000E+01   2.000000E+01   2.000000E+01   2.000000E+01   2.000000E+01   2.000000E+01   2.000000E+01   2.000000E+01   2.000000E+01   2.000000E+01   2.000000E+01   2.000000E+01   2.000000E+01   2.000000E+01   2.000000E+01   2.000000E+01   2.000000E+01   2.000000E+01   2.000000E+01   2.000000E+01   2.000000E+01   2.000000E+01   2.000000E+01   2.000000E+01   2.000000E+01   2.000000E+01   2.000000E+01   2.000000E+01   2.000000E+01   2.000000E+01   2.000000E+01   2.000000E+01   2.000000E+01   2.000000E+01   2.000000E+01
   2.000000E+01   2.000000E+01   2.000000E+01   2.000000E+01   2.000000E+01   2.000000E+01   2.000000E+01   2.000000E+01   2.000000E+01   2.000000E+01   2.000000E+01   2.000000E+01   2.000000E+01   2.000000E+01   2.000000E+01   2.000000E+01   2.000000E+01   2.000000E+01   2.000000E+01   2.000000E+01   2.000000E+01   2.000000E+01   2.000000E+01   2.000000E+01   2.000000E+01   2.000000E+01   2.000000E+01   2.000000E+01   2.000000E+01   2.000000E+01   2.000000E+01   2.000000E+01   2.000000E+01   2.000000E+01   2.000000E+01   2.000000E+01   2.000000E+01   2.000000E+01   2.000000E+01   2.000000E+01   2.000000E+01   2.000000E+01   2.000000E+01   2.000000E+01   2.000000E+01   2.000000E+01   2.000000E+01   2.000000E+01   2.000000E+01   2.000000E+01   2.000000E+01
   2.000000E+01   2.000000E+01   2.000000E+01   2.000000E+01   2.000000E+01   2.000000E+01   2.000000E+01   2.000000E+01   2.000000E+01   2.000000E+01   2.000000E+01   2.000000E+01   2.000000E+01   2.000000E+01   2.000000E+01   2.000000E+01   2.000000E+01   2.000000E+01   2.000000E+01   2.000000E+01   2.000000E+01   2.000000E+01   2.000000E+01   2.000000E+01   2.000000E+01   2.000000E+01   2.000000E+01   2.000000E+01   2.000000E+01   2.000000E+01   2.000000E+01   2.000000E+01   2.000000E+01   2.000000E+01   2.000000E+01   2.000000E+01   2.000000E+01   2.000000E+01   2.000000E+01   2.000000E+01   2.000000E+01   2.000000E+01   2.000000E+01   2.000000E+01   2.000000E+01   2.000000E+01   2.000000E+01   2.000000E+01   2.000000E+01   2.000000E+01   2.000000E+01
   1.000000E+01   1.000000E+01   1.000000E+01   1.000000E+01   1.000000E+01   1.000000E+01   1.000000E+01   1.000000E+01   1.000000E+01   1.000000E+01   1.000000E+01   1.000000E+01   2.000000E+01   2.000000E+01   2.000000E+01   2.000000E+01   2.000000E+01   2.000000E+01   2.000000E+01   2.000000E+01   2.000000E+01   2.000000E+01   2.000000E+01   2.000000E+01   2.000000E+01   2.000000E+01   2.000000E+01   2.000000E+01   2.000000E+01   2.000000E+01   2.000000E+01   2.000000E+01   2.000000E+01   2.000000E+01   2.000000E+01   2.000000E+01   2.000000E+01   2.000000E+01   2.000000E+01   2.000000E+01   2.000000E+01   2.000000E+01   2.000000E+01   2.000000E+01   2.000000E+01   2.000000E+01   2.000000E+01   2.000000E+01   2.000000E+01   2.000000E+01   2.000000E+01
   1.000000E+01   1.000000E+01   1.000000E+01   1.000000E+01   1.000000E+01   1.000000E+01   1.000000E+01   1.000000E+01   1.000000E+01   1.000000E+01   1.000000E+01   1.000000E+01   2.000000E+01   2.000000E+01   2.000000E+01   2.000000E+01   2.000000E+01   2.000000E+01   2.000000E+01   2.000000E+01   2.000000E+01   2.000000E+01   2.000000E+01   2.000000E+01   2.000000E+01   2.000000E+01   2.000000E+01   2.000000E+01   2.000000E+01   2.000000E+01   2.000000E+01   2.000000E+01   2.000000E+01   2.000000E+01   2.000000E+01   2.000000E+01   2.000000E+01   2.000000E+01   2.000000E+01   2.000000E+01   2.000000E+01   2.000000E+01   2.000000E+01   2.000000E+01   2.000000E+01   2.000000E+01   2.000000E+01   2.000000E+01   2.000000E+01   2.000000E+01   2.000000E+01
   1.000000E+01   1.000000E+01   1.000000E+01   1.000000E+01   1.000000E+01   1.000000E+01   1.000000E+01   1.000000E+01   1.000000E+01   1.000000E+01   1.000000E+01   1.000000E+01   2.000000E+01   2.000000E+01   2.000000E+01   2.000000E+01   2.000000E+01   2.000000E+01   2.000000E+01   2.000000E+01   2.000000E+01   2.000000E+01   2.000000E+01   2.000000E+01   2.000000E+01   2.000000E+01   2.000000E+01   2.000000E+01   2.000000E+01   2.000000E+01   2.000000E+01   2.000000E+01   2.000000E+01   2.000000E+01   2.000000E+01   2.000000E+01   2.000000E+01   2.000000E+01   2.000000E+01   2.000000E+01   2.000000E+01   2.000000E+01   2.000000E+01   2.000000E+01   2.000000E+01   2.000000E+01   2.000000E+01   2.000000E+01   2.000000E+01   2.000000E+01   2.000000E+01
   1.000000E+01   1.000000E+01   1.000000E+01   1.000000E+01   1.000000E+01   1.000000E+01   1.000000E+01   1.000000E+01   1.000000E+01   1.000000E+01   1.000000E+01   1.000000E+01   2.000000E+01   2.000000E+01   2.000000E+01   2.000000E+01   2.000000E+01   2.000000E+01   2.000000E+01   2.000000E+01   2.000000E+01   2.000000E+01   2.000000E+01   2.000000E+01   2.000000E+01   2.000000E+01   2.000000E+01   2.000000E+01   2.000000E+01   2.000000E+01   2.000000E+01   2.000000E+01   2.000000E+01   2.000000E+01   2.000000E+01   2.000000E+01   2.000000E+01   2.000000E+01   2.000000E+01   2.000000E+01   2.000000E+01   2.000000E+01   2.000000E+01   2.000000E+01   2.000000E+01   2.000000E+01   2.000000E+01   2.000000E+01   2.000000E+01   2.000000E+01   2.000000E+01
   2.000000E+01   2.000000E+01   2.000000E+01   2.000000E+01   2.000000E+01   2.000000E+01   2.000000E+01   2.000000E+01   2.000000E+01   2.000000E+01   2.000000E+01   2.000000E+01   2.000000E+01   2.000000E+01   2.000000E+01   2.000000E+01   2.000000E+01   2.000000E+01   2.000000E+01   2.000000E+01   2.000000E+01   2.000000E+01   2.000000E+01   2.000000E+01   2.000000E+01   2.000000E+01   2.000000E+01   2.000000E+01   2.000000E+01   2.000000E+01   2.000000E+01   2.000000E+01   2.000000E+01   2.000000E+01   2.000000E+01   2.000000E+01   2.000000E+01   2.000000E+01   2.000000E+01   2.000000E+01   2.000000E+01   2.000000E+01   2.000000E+01   2.000000E+01   2.000000E+01   2.000000E+01   2.000000E+01   2.000000E+01   2.000000E+01   2.000000E+01   2.000000E+01
   2.000000E+01   2.000000E+01   2.000000E+01   2.000000E+01   2.000000E+01   2.000000E+01   2.000000E+01   2.000000E+01   2.000000E+01   2.000000E+01   2.000000E+01   2.000000E+01   2.000000E+01   2.000000E+01   2.000000E+01   2.000000E+01   2.000000E+01   2.000000E+01   2.000000E+01   2.000000E+01   2.000000E+01   2.000000E+01   2.000000E+01   2.000000E+01   2.000000E+01   2.000000E+01   2.000000E+01   2.000000E+01   2.000000E+01   2.000000E+01   2.000000E+01   2.000000E+01   2.000000E+01   2.000000E+01   2.000000E+01   2.000000E+01   2.000000E+01   2.000000E+01   2.000000E+01   2.000000E+01   2.000000E+01   2.000000E+01   2.000000E+01   2.000000E+01   2.000000E+01   2.000000E+01   2.000000E+01   2.000000E+01   2.000000E+01   2.000000E+01   2.000000E+01
   2.000000E+01   2.000000E+01   2.000000E+01   2.000000E+01   2.000000E+01   2.000000E+01   2.000000E+01   2.000000E+01   2.000000E+01   2.000000E+01   2.000000E+01   2.000000E+01   2.000000E+01   2.000000E+01   2.000000E+01   2.000000E+01   2.000000E+01   2.000000E+01   2.000000E+01   2.000000E+01   2.000000E+01   2.000000E+01   2.000000E+01   2.000000E+01   2.000000E+01   2.000000E+01   2.000000E+01   2.000000E+01   2.000000E+01   2.000000E+01   2.000000E+01   2.000000E+01   2.000000E+01   2.000000E+01   2.000000E+01   2.000000E+01   2.000000E+01   2.000000E+01   2.000000E+01   2.000000E+01   2.000000E+01   2.000000E+01   2.000000E+01   2.000000E+01   2.000000E+01   2.000000E+01   2.000000E+01   2.000000E+01   2.000000E+01   2.000000E+01   2.000000E+01
   2.000000E+01   2.000000E+01   2.000000E+01   2.000000E+01   2.000000E+01   2.000000E+01   2.000000E+01   2.000000E+01   2.000000E+01   2.000000E+01   2.000000E+01   2.000000E+01   2.000000E+01   2.000000E+01   2.000000E+01   2.000000E+01   2.000000E+01   2.000000E+01   2.000000E+01   2.000000E+01   2.000000E+01   2.000000E+01   2.000000E+01   2.000000E+01   2.000000E+01   2.000000E+01   2.000000E+01   2.000000E+01   2.000000E+01   2.000000E+01   2.000000E+01   2.000000E+01   2.000000E+01   2.000000E+01   2.000000E+01   2.000000E+01   2.000000E+01   2.000000E+01   2.000000E+01   2.000000E+01   2.000000E+01   2.000000E+01   2.000000E+01   2.000000E+01   2.000000E+01   2.000000E+01   2.000000E+01   2.000000E+01   2.000000E+01   2.000000E+01   2.000000E+01
   7.500000E+01   7.500000E+01   7.500000E+01   7.500000E+01   7.500000E+01   7.500000E+01   7.500000E+01   7.500000E+01   7.500000E+01   7.500000E+01   7.500000E+01   7.500000E+01   7.500000E+01   7.500000E+01   7.500000E+01   7.500000E+01   7.500000E+01   7.500000E+01   7.500000E+01   7.500000E+01   1.000000E+02   1.000000E+02   1.000000E+02   1.000000E+02   1.000000E+02   1.000000E+02   1.000000E+02   1.000000E+02   1.000000E+02   1.000000E+02   1.000000E+02   1.000000E+02   1.000000E+02   1.000000E+02   1.000000E+02   1.000000E+02   1.000000E+02   1.000000E+02   1.000000E+02   1.000000E+02   1.000000E+02   1.000000E+02   1.000000E+02   1.000000E+02   1.000000E+02   1.000000E+02   1.000000E+02   1.000000E+02   1.000000E+02   1.000000E+02   1.000000E+02
   7.500000E+01   7.500000E+01   7.500000E+01   7.500000E+01   7.500000E+01   7.500000E+01   7.500000E+01   7.500000E+01   7.500000E+01   7.500000E+01   7.500000E+01   7.500000E+01   7.500000E+01   7.500000E+01   7.500000E+01   7.500000E+01   7.500000E+01   7.500000E+01   7.500000E+01   7.500000E+01   1.000000E+02   1.000000E+02   1.000000E+02   1.000000E+02   1.000000E+02   1.000000E+02   1.000000E+02   1.000000E+02   1.000000E+02   1.000000E+02   1.000000E+02   1.000000E+02   1.000000E+02   1.000000E+02   1.000000E+02   1.000000E+02   1.000000E+02   1.000000E+02   1.000000E+02   1.000000E+02   1.000000E+02   1.000000E+02   1.000000E+02   1.000000E+02   1.000000E+02   1.000000E+02   1.000000E+02   1.000000E+02   1.000000E+02   1.000000E+02   1.000000E+02