# CHD package for  MODFLOW-2000, generated by Flopy.
       102
       102         0 # stress period 1
         1         1         1       100       100
         1         1        51       100       100
         1         2         1      99.2      99.2
         1         2        51      99.2      99.2
         1         3         1      98.4      98.4
         1         3        51      98.4      98.4
         1         4         1      97.6      97.6
         1         4        51      97.6      97.6
         1         5         1      96.8      96.8
         1         5        51      96.8      96.8
         1         6         1        96        96
         1         6        51        96        96
         1         7         1      95.2      95.2
         1         7        51      95.2      95.2
         1         8         1      94.4      94.4
         1         8        51      94.4      94.4
         1         9         1      93.6      93.6
         1         9        51      93.6      93.6
         1        10         1      92.8      92.8
         1        10        51      92.8      92.8
         1        11         1        92        92
         1        11        51        92        92
         1        12         1      91.2      91.2
         1        12        51      91.2      91.2
         1        13         1      90.4      90.4
         1        13        51      90.4      90.4
         1        14         1      89.6      89.6
         1        14        51      89.6      89.6
         1        15         1      88.8      88.8
         1        15        51      88.8      88.8
         1        16         1        88        88
         1        16        51        88        88
         1        17         1      87.2      87.2
         1        17        51      87.2      87.2
         1        18         1      86.4      86.4
         1        18        51      86.4      86.4
         1        19         1      85.6      85.6
         1        19        51      85.6      85.6
         1        20         1      84.8      84.8
         1        20        51      84.8      84.8
         1        21         1        84        84
         1        21        51        84        84
         1        22         1      83.2      83.2
         1        22        51      83.2      83.2
         1        23         1      82.4      82.4
         1        23        51      82.4      82.4
         1        24         1      81.6      81.6
         1        24        51      81.6      81.6
         1        25         1      80.8      80.8
         1        25        51      80.8      80.8
         1        26         1        80        80
         1        26        51        80        80
         1        27         1      79.2      79.2
         1        27        51      79.2      79.2
         1        28         1      78.4      78.4
         1        28        51      78.4      78.4
         1        29         1      77.6      77.6
         1        29        51      77.6      77.6
         1        30         1      76.8      76.8
         1        30        51      76.8      76.8
         1        31         1        76        76
         1        31        51        76        76
         1        32         1      75.2      75.2
         1        32        51      75.2      75.2
         1        33         1      74.4      74.4
         1        33        51      74.4      74.4
         1        34         1      73.6      73.6
         1        34        51      73.6      73.6
         1        35         1      72.8      72.8
         1        35        51      72.8      72.8
         1        36         1        72        72
         1        36        51        72        72
         1        37         1      71.2      71.2
         1        37        51      71.2      71.2
         1        38         1      70.4      70.4
         1        38        51      70.4      70.4
         1        39         1      69.6      69.6
         1        39        51      69.6      69.6
         1        40         1      68.8      68.8
         1        40        51      68.8      68.8
         1        41         1        68        68
         1        41        51        68        68
         1        42         1      67.2      67.2
         1        42        51      67.2      67.2
         1        43         1      66.4      66.4
         1        43        51      66.4      66.4
         1        44         1      65.6      65.6
         1        44        51      65.6      65.6
         1        45         1      64.8      64.8
         1        45        51      64.8      64.8
         1        46         1        64        64
         1        46        51        64        64
         1        47         1      63.2      63.2
         1        47        51      63.2      63.2
         1        48         1      62.4      62.4
         1        48        51      62.4      62.4
         1        49         1      61.6      61.6
         1        49        51      61.6      61.6
         1        50         1      60.8      60.8
         1        50        51      60.8      60.8
         1        51         1        60        60
         1        51        51        60        60
        -1         0 # stress period 2
        -1         0 # stress period 3
        -1         0 # stress period 4
        -1         0 # stress period 5
        -1         0 # stress period 6
        -1         0 # stress period 7
        -1         0 # stress period 8
        -1         0 # stress period 9
        -1         0 # stress period 10
        -1         0 # stress period 11
